**
** Heading +++++++++++++++++++++++++++++++++++++++++++++++++
**
*Heading
Hash: UsSukL2n, Date: 03/11/2026, Unit system: M_KG_S_C
**
** Nodes +++++++++++++++++++++++++++++++++++++++++++++++++++
**
*Node
1, -1.00000000E+000, 5.00000000E-002, -5.00000000E-002
2, -1.00000000E+000, -5.00000000E-002, -5.00000000E-002
3, 1.00000000E+000, -5.00000000E-002, -5.00000000E-002
4, 1.00000000E+000, 5.00000000E-002, -5.00000000E-002
5, 1.00000000E+000, -5.00000000E-002, 5.00000000E-002
6, 1.00000000E+000, 5.00000000E-002, 5.00000000E-002
7, -1.00000000E+000, -5.00000000E-002, 5.00000000E-002
8, -1.00000000E+000, 5.00000000E-002, 5.00000000E-002
9, -1.00000000E+000, 0.00000000E+000, -5.00000000E-002
10, -8.00000000E-001, -5.00000000E-002, -5.00000000E-002
11, -6.00000000E-001, -5.00000000E-002, -5.00000000E-002
12, -4.00000000E-001, -5.00000000E-002, -5.00000000E-002
13, -2.00000000E-001, -5.00000000E-002, -5.00000000E-002
14, 0.00000000E+000, -5.00000000E-002, -5.00000000E-002
15, 2.00000000E-001, -5.00000000E-002, -5.00000000E-002
16, 4.00000000E-001, -5.00000000E-002, -5.00000000E-002
17, 6.00000000E-001, -5.00000000E-002, -5.00000000E-002
18, 8.00000000E-001, -5.00000000E-002, -5.00000000E-002
19, -9.00000000E-001, -5.00000000E-002, -5.00000000E-002
20, -7.00000000E-001, -5.00000000E-002, -5.00000000E-002
** ... 246 like lines cut
**
** Elements ++++++++++++++++++++++++++++++++++++++++++++++++
**
*Element, Type=C3D20, Elset=Solid_part-1
1, 1, 2, 10, 30, 8, 7, 60, 80, 9, 19, 93, 39, 71, 70, 110,
90, 92, 91, 120, 111
2, 30, 10, 11, 31, 80, 60, 59, 79, 93, 20, 94, 40, 110, 69, 109,
89, 111, 120, 121, 112
3, 31, 11, 12, 32, 79, 59, 58, 78, 94, 21, 95, 41, 109, 68, 108,
88, 112, 121, 122, 113
4, 32, 12, 13, 33, 78, 58, 57, 77, 95, 22, 96, 42, 108, 67, 107,
87, 113, 122, 123, 114
5, 33, 13, 14, 34, 77, 57, 56, 76, 96, 23, 97, 43, 107, 66, 106,
86, 114, 123, 124, 115
6, 34, 14, 15, 35, 76, 56, 55, 75, 97, 24, 98, 44, 106, 65, 105,
85, 115, 124, 125, 116
7, 35, 15, 16, 36, 75, 55, 54, 74, 98, 25, 99, 45, 105, 64, 104,
84, 116, 125, 126, 117
8, 36, 16, 17, 37, 74, 54, 53, 73, 99, 26, 100, 46, 104, 63, 103,
83, 117, 126, 127, 118
9, 37, 17, 18, 38, 73, 53, 52, 72, 100, 27, 101, 47, 103, 62, 102,
82, 118, 127, 128, 119
10, 38, 18, 3, 4, 72, 52, 5, 6, 101, 28, 29, 48, 102, 61, 50,
81, 119, 128, 49, 51
*Element, Type=S8, Elset=Shell_part-2
11, 129, 131, 153, 133, 152, 162, 173, 142
12, 133, 153, 154, 134, 173, 163, 174, 143
13, 134, 154, 155, 135, 174, 164, 175, 144
14, 135, 155, 156, 136, 175, 165, 176, 145
15, 136, 156, 157, 137, 176, 166, 177, 146
16, 137, 157, 158, 138, 177, 167, 178, 147
17, 138, 158, 159, 139, 178, 168, 179, 148
18, 139, 159, 160, 140, 179, 169, 180, 149
19, 140, 160, 161, 141, 180, 170, 181, 150
20, 141, 161, 132, 130, 181, 171, 172, 151
*Element, Type=S8, Elset=Shell_part-1
21, 182, 205, 230, 186, 206, 239, 240, 195
22, 205, 184, 208, 230, 207, 217, 241, 239
23, 186, 230, 231, 187, 240, 242, 243, 196
24, 230, 208, 209, 231, 241, 218, 244, 242
25, 187, 231, 232, 188, 243, 245, 246, 197
26, 231, 209, 210, 232, 244, 219, 247, 245
27, 188, 232, 233, 189, 246, 248, 249, 198
28, 232, 210, 211, 233, 247, 220, 250, 248
29, 189, 233, 234, 190, 249, 251, 252, 199
30, 233, 211, 212, 234, 250, 221, 253, 251
31, 190, 234, 235, 191, 252, 254, 255, 200
32, 234, 212, 213, 235, 253, 222, 256, 254
33, 191, 235, 236, 192, 255, 257, 258, 201
34, 235, 213, 214, 236, 256, 223, 259, 257
35, 192, 236, 237, 193, 258, 260, 261, 202
36, 236, 214, 215, 237, 259, 224, 262, 260
37, 193, 237, 238, 194, 261, 263, 264, 203
38, 237, 215, 216, 238, 262, 225, 265, 263
39, 194, 238, 227, 183, 264, 266, 228, 204
40, 238, 216, 185, 227, 265, 226, 229, 266
**
** Node sets +++++++++++++++++++++++++++++++++++++++++++++++
**
*Nset, Nset=Internal-1_Internal_Selection-1_Shell_part-2_to_Solid_part-1_Master
129, 130, 131, 132, 133, 134, 135, 136, 137, 138, 139, 140, 141, 142, 143, 144, 
145, 146, 147, 148, 149, 150, 151, 152, 153, 154, 155, 156, 157, 158, 159, 160, 
161, 162, 163, 164, 165, 166, 167, 168, 169, 170, 171, 172, 173, 174, 175, 176, 
177, 178, 179, 180, 181
*Nset, Nset=Internal-1_Internal_Selection-1_Shell_part-2_to_Solid_part-1_Slave
1, 4, 6, 8, 30, 31, 32, 33, 34, 35, 36, 37, 38, 39, 40, 41, 
42, 43, 44, 45, 46, 47, 48, 51, 72, 73, 74, 75, 76, 77, 78, 79, 
80, 81, 82, 83, 84, 85, 86, 87, 88, 89, 90, 92, 111, 112, 113, 114, 
115, 116, 117, 118, 119
*Nset, Nset=Internal-1_Internal_Selection-1_Solid_part-1_to_Shell_part-1_Master
2, 3, 5, 7, 10, 11, 12, 13, 14, 15, 16, 17, 18, 19, 20, 21, 
22, 23, 24, 25, 26, 27, 28, 49, 52, 53, 54, 55, 56, 57, 58, 59, 
60, 61, 62, 63, 64, 65, 66, 67, 68, 69, 70, 91, 120, 121, 122, 123, 
124, 125, 126, 127, 128
*Nset, Nset=Internal-1_Internal_Selection-1_Solid_part-1_to_Shell_part-1_Slave
182, 183, 184, 185, 186, 187, 188, 189, 190, 191, 192, 193, 194, 195, 196, 197, 
198, 199, 200, 201, 202, 203, 204, 205, 206, 207, 208, 209, 210, 211, 212, 213, 
214, 215, 216, 217, 218, 219, 220, 221, 222, 223, 224, 225, 226, 227, 228, 229, 
230, 231, 232, 233, 234, 235, 236, 237, 238, 239, 240, 241, 242, 243, 244, 245, 
246, 247, 248, 249, 250, 251, 252, 253, 254, 255, 256, 257, 258, 259, 260, 261, 
262, 263, 264, 265, 266
*Nset, Nset=Internal_Selection-1_Fixed-1
1, 2, 7, 8, 9, 71, 91, 92
*Nset, Nset=Internal-1_Internal_Selection-1_Surface_Traction-1
3, 4, 5, 6, 29, 49, 50, 51
**
** Element sets ++++++++++++++++++++++++++++++++++++++++++++
**
*Elset, Elset=Internal_Selection-1_Solid_Section-1
Solid_part-1
*Elset, Elset=Internal_Selection-1_Shell_Section-1
11, 12, 13, 14, 15, 16, 17, 18, 19, 20
*Elset, Elset=Internal_Selection-1_Shell_Section-2
21, 22, 23, 24, 25, 26, 27, 28, 29, 30, 31, 32, 33, 34, 35, 36, 
37, 38, 39, 40
*Elset, Elset=Internal-1_Internal_Selection-1_Shell_part-2_to_Solid_part-1_Master_S2
11, 12, 13, 14, 15, 16, 17, 18, 19, 20
*Elset, Elset=Internal-1_Internal_Selection-1_Shell_part-2_to_Solid_part-1_Slave_S6
1, 2, 3, 4, 5, 6, 7, 8, 9, 10
*Elset, Elset=Internal-1_Internal_Selection-1_Solid_part-1_to_Shell_part-1_Master_S4
1, 2, 3, 4, 5, 6, 7, 8, 9, 10
*Elset, Elset=Internal-1_Internal_Selection-1_Solid_part-1_to_Shell_part-1_Slave_S1
21, 22, 23, 24, 25, 26, 27, 28, 29, 30, 31, 32, 33, 34, 35, 36, 
37, 38, 39, 40
*Elset, Elset=Internal-1_Internal_Selection-1_Surface_Traction-1_S5
10
**
** Surfaces ++++++++++++++++++++++++++++++++++++++++++++++++
**
*Surface, Name=Internal_Selection-1_Shell_part-2_to_Solid_part-1_Master, Type=Element
Internal-1_Internal_Selection-1_Shell_part-2_to_Solid_part-1_Master_S2, S2
*Surface, Name=Internal_Selection-1_Shell_part-2_to_Solid_part-1_Slave, Type=Element
Internal-1_Internal_Selection-1_Shell_part-2_to_Solid_part-1_Slave_S6, S6
*Surface, Name=Internal_Selection-1_Solid_part-1_to_Shell_part-1_Master, Type=Element
Internal-1_Internal_Selection-1_Solid_part-1_to_Shell_part-1_Master_S4, S4
*Surface, Name=Internal_Selection-1_Solid_part-1_to_Shell_part-1_Slave, Type=Element
Internal-1_Internal_Selection-1_Solid_part-1_to_Shell_part-1_Slave_S1, S1
*Surface, Name=Internal_Selection-1_Surface_Traction-1, Type=Element
Internal-1_Internal_Selection-1_Surface_Traction-1_S5, S5
**
** Physical constants ++++++++++++++++++++++++++++++++++++++
**
**
** Coordinate systems ++++++++++++++++++++++++++++++++++++++
**
**
** Materials +++++++++++++++++++++++++++++++++++++++++++++++
**
*Material, Name=S235
*Density
7800
*Elastic
210000000000, 0.28
*Expansion, Zero=20
1.1E-05
*Conductivity
14
*Specific heat
440
**
** Sections ++++++++++++++++++++++++++++++++++++++++++++++++
**
*Solid section, Elset=Internal_Selection-1_Solid_Section-1, Material=S235
*Shell section, Elset=Internal_Selection-1_Shell_Section-1, Material=S235, Offset=1
0.005
*Shell section, Elset=Internal_Selection-1_Shell_Section-2, Material=S235, Offset=-1
0.005
**
** Pre-tension sections ++++++++++++++++++++++++++++++++++++
**
**
** Constraints +++++++++++++++++++++++++++++++++++++++++++++
**
*Tie, Name=Shell_part-2_to_Solid_part-1, Position tolerance=0.01, Adjust=No
Internal_Selection-1_Shell_part-2_to_Solid_part-1_Slave, Internal_Selection-1_Shell_part-2_to_Solid_part-1_Master
*Tie, Name=Solid_part-1_to_Shell_part-1, Position tolerance=0.01, Adjust=No
Internal_Selection-1_Solid_part-1_to_Shell_part-1_Slave, Internal_Selection-1_Solid_part-1_to_Shell_part-1_Master
**
** Surface interactions ++++++++++++++++++++++++++++++++++++
**
**
** Contact pairs +++++++++++++++++++++++++++++++++++++++++++
**
**
** Amplitudes ++++++++++++++++++++++++++++++++++++++++++++++
**
**
** Initial conditions ++++++++++++++++++++++++++++++++++++++
**
**
** Steps +++++++++++++++++++++++++++++++++++++++++++++++++++
**
**
** Step-1 ++++++++++++++++++++++++++++++++++++++++++++++++++
**
*Step
*Static
**
** Controls ++++++++++++++++++++++++++++++++++++++++++++++++
**
**
** Output frequency ++++++++++++++++++++++++++++++++++++++++
**
**
** Boundary conditions +++++++++++++++++++++++++++++++++++++
**
*Boundary, op=New
** Name: Fixed-1
*Boundary
Internal_Selection-1_Fixed-1, 1, 6, 0
**
** Loads +++++++++++++++++++++++++++++++++++++++++++++++++++
**
*Cload, op=New
*Dload, op=New
** Name: Surface_Traction-1
*Cload
3, 2, 83.3333333333333
5, 2, 83.3333333333333
6, 2, 83.3333333333333
4, 2, 83.3333333333333
49, 2, -3.33333333E+002
50, 2, -3.33333333E+002
51, 2, -3.33333333E+002
29, 2, -3.33333333E+002
**
** Defined fields ++++++++++++++++++++++++++++++++++++++++++
**
**
** History outputs +++++++++++++++++++++++++++++++++++++++++
**
**
** Field outputs +++++++++++++++++++++++++++++++++++++++++++
**
*Node file
RF, U
*El file
S, E, NOE
**
** End step ++++++++++++++++++++++++++++++++++++++++++++++++
**
*End step
