**
** Heading +++++++++++++++++++++++++++++++++++++++++++++++++
**
*Heading
Hash: q4KbbXcS, Date: 03/09/2026, Unit system: M_KG_S_C
**
** Nodes +++++++++++++++++++++++++++++++++++++++++++++++++++
**
*Node
1, -1.00000000E+000, 7.50000000E-002, -5.00000000E-002
2, -1.00000000E+000, -7.50000000E-002, -5.00000000E-002
3, 1.00000000E+000, -7.50000000E-002, -5.00000000E-002
4, 1.00000000E+000, 7.50000000E-002, -5.00000000E-002
5, 1.00000000E+000, -7.50000000E-002, 5.00000000E-002
6, 1.00000000E+000, 7.50000000E-002, 5.00000000E-002
7, -1.00000000E+000, -7.50000000E-002, 5.00000000E-002
8, -1.00000000E+000, 7.50000000E-002, 5.00000000E-002
9, -1.00000000E+000, 1.11022302E-016, -5.00000000E-002
10, -1.00000000E+000, 3.75000000E-002, -5.00000000E-002
11, -1.00000000E+000, -3.75000000E-002, -5.00000000E-002
12, -8.00000000E-001, -7.50000000E-002, -5.00000000E-002
13, -6.00000000E-001, -7.50000000E-002, -5.00000000E-002
14, -4.00000000E-001, -7.50000000E-002, -5.00000000E-002
15, -2.00000000E-001, -7.50000000E-002, -5.00000000E-002
16, 0.00000000E+000, -7.50000000E-002, -5.00000000E-002
17, 2.00000000E-001, -7.50000000E-002, -5.00000000E-002
18, 4.00000000E-001, -7.50000000E-002, -5.00000000E-002
19, 6.00000000E-001, -7.50000000E-002, -5.00000000E-002
20, 8.00000000E-001, -7.50000000E-002, -5.00000000E-002
** ... 183 like lines cut
**
** Elements ++++++++++++++++++++++++++++++++++++++++++++++++
**
*Element, Type=C3D20, Elset=Solid_part-1
1, 1, 9, 101, 34, 8, 77, 147, 88, 10, 111, 110, 43, 78, 166, 164,
98, 100, 176, 195, 177
2, 34, 101, 102, 35, 88, 147, 146, 87, 110, 113, 112, 44, 164, 165, 162,
97, 177, 195, 196, 178
3, 35, 102, 103, 36, 87, 146, 145, 86, 112, 115, 114, 45, 162, 163, 160,
96, 178, 196, 197, 179
4, 36, 103, 104, 37, 86, 145, 144, 85, 114, 117, 116, 46, 160, 161, 158,
95, 179, 197, 198, 180
5, 37, 104, 105, 38, 85, 144, 143, 84, 116, 119, 118, 47, 158, 159, 156,
94, 180, 198, 199, 181
6, 38, 105, 106, 39, 84, 143, 142, 83, 118, 121, 120, 48, 156, 157, 154,
93, 181, 199, 200, 182
7, 39, 106, 107, 40, 83, 142, 141, 82, 120, 123, 122, 49, 154, 155, 152,
92, 182, 200, 201, 183
8, 40, 107, 108, 41, 82, 141, 140, 81, 122, 125, 124, 50, 152, 153, 150,
91, 183, 201, 202, 184
9, 41, 108, 109, 42, 81, 140, 139, 80, 124, 127, 126, 51, 150, 151, 148,
90, 184, 202, 203, 185
10, 42, 109, 31, 4, 80, 139, 54, 6, 126, 128, 32, 52, 148, 149, 55,
89, 185, 203, 138, 57
** ... 20 like lines cut
**
** Node sets +++++++++++++++++++++++++++++++++++++++++++++++
**
*Nset, Nset=Internal_Selection-1_Fixed-1
1, 2, 7, 8, 9, 10, 11, 77, 78, 79, 99, 100, 176
*Nset, Nset=Internal-1_Internal_Selection-1_Surface_Traction-1
3, 4, 5, 6, 31, 32, 33, 53, 54, 55, 56, 57, 138
**
** Element sets ++++++++++++++++++++++++++++++++++++++++++++
**
*Elset, Elset=Internal_Selection-1_Solid_Section-1
Solid_part-1
*Elset, Elset=Internal-1_Internal_Selection-1_Surface_Traction-1_S5
10, 20
**
** Surfaces ++++++++++++++++++++++++++++++++++++++++++++++++
**
*Surface, Name=Internal_Selection-1_Surface_Traction-1, Type=Element
Internal-1_Internal_Selection-1_Surface_Traction-1_S5, S5
**
** Physical constants ++++++++++++++++++++++++++++++++++++++
**
**
** Coordinate systems ++++++++++++++++++++++++++++++++++++++
**
**
** Materials +++++++++++++++++++++++++++++++++++++++++++++++
**
*Material, Name=S235
*Density
7800
*Elastic
210000000000, 0.28
*Expansion, Zero=20
1.1E-05
*Conductivity
14
*Specific heat
440
**
** Sections ++++++++++++++++++++++++++++++++++++++++++++++++
**
*Solid section, Elset=Internal_Selection-1_Solid_Section-1, Material=S235
**
** Pre-tension sections ++++++++++++++++++++++++++++++++++++
**
**
** Constraints +++++++++++++++++++++++++++++++++++++++++++++
**
**
** Surface interactions ++++++++++++++++++++++++++++++++++++
**
**
** Contact pairs +++++++++++++++++++++++++++++++++++++++++++
**
**
** Amplitudes ++++++++++++++++++++++++++++++++++++++++++++++
**
**
** Initial conditions ++++++++++++++++++++++++++++++++++++++
**
**
** Steps +++++++++++++++++++++++++++++++++++++++++++++++++++
**
**
** Step-1 ++++++++++++++++++++++++++++++++++++++++++++++++++
**
*Step
*Static
**
** Controls ++++++++++++++++++++++++++++++++++++++++++++++++
**
**
** Output frequency ++++++++++++++++++++++++++++++++++++++++
**
**
** Boundary conditions +++++++++++++++++++++++++++++++++++++
**
*Boundary, op=New
** Name: Fixed-1
*Boundary
Internal_Selection-1_Fixed-1, 1, 6, 0
**
** Loads +++++++++++++++++++++++++++++++++++++++++++++++++++
**
*Cload, op=New
*Dload, op=New
** Name: Surface_Traction-1
*Cload
31, 2, 83.3333333333333
54, 2, 83.3333333333333
6, 2, 41.6666666666666
4, 2, 41.6666666666666
138, 2, -3.33333333E+002
55, 2, -1.66666667E+002
57, 2, -1.66666667E+002
32, 2, -1.66666667E+002
3, 2, 41.6666666666667
5, 2, 41.6666666666667
53, 2, -1.66666667E+002
56, 2, -1.66666667E+002
33, 2, -1.66666667E+002
**
** Defined fields ++++++++++++++++++++++++++++++++++++++++++
**
**
** History outputs +++++++++++++++++++++++++++++++++++++++++
**
**
** Field outputs +++++++++++++++++++++++++++++++++++++++++++
**
*Node file
RF, U
*El file
S, E, NOE
**
** End step ++++++++++++++++++++++++++++++++++++++++++++++++
**
*End step
