**
** Heading +++++++++++++++++++++++++++++++++++++++++++++++++
**
*Heading
Hash: o04IrjIb, Date: 02/11/2026, Unit system: M_KG_S_C
**
** Nodes +++++++++++++++++++++++++++++++++++++++++++++++++++
**
*Node
1, 5.00000000E-001, 9.00000000E-002, -5.00000000E-002
2, 5.00000000E-001, 9.00000000E-002, 5.00000000E-002
3, -5.00000000E-001, 9.00000000E-002, 5.00000000E-002
4, -5.00000000E-001, 9.00000000E-002, -5.00000000E-002
5, 5.00000000E-001, -7.00000000E-002, 5.00000000E-002
6, 5.00000000E-001, -7.00000000E-002, -5.00000000E-002
7, -5.00000000E-001, -7.00000000E-002, -5.00000000E-002
8, -5.00000000E-001, -7.00000000E-002, 5.00000000E-002
9, 5.00000000E-001, 9.00000000E-002, 3.46944695E-017
10, 5.00000000E-001, 9.00000000E-002, -2.50000000E-002
11, 5.00000000E-001, 9.00000000E-002, 2.50000000E-002
12, 4.16666667E-001, 9.00000000E-002, 5.00000000E-002
13, 3.33333333E-001, 9.00000000E-002, 5.00000000E-002
14, 2.50000000E-001, 9.00000000E-002, 5.00000000E-002
15, 1.66666667E-001, 9.00000000E-002, 5.00000000E-002
16, 8.33333333E-002, 9.00000000E-002, 5.00000000E-002
17, 0.00000000E+000, 9.00000000E-002, 5.00000000E-002
18, -8.33333333E-002, 9.00000000E-002, 5.00000000E-002
19, -1.66666667E-001, 9.00000000E-002, 5.00000000E-002
20, -2.50000000E-001, 9.00000000E-002, 5.00000000E-002
** ... 361 like lines cut
**
** Elements ++++++++++++++++++++++++++++++++++++++++++++++++
**
*Element, Type=C3D20, Elset=Solid_part-3
1, 1, 9, 125, 38, 67, 170, 315, 220, 10, 137, 136, 49, 172, 327, 328,
231, 68, 171, 326, 232
2, 67, 170, 315, 220, 6, 64, 185, 80, 172, 327, 328, 231, 65, 208, 219,
92, 69, 173, 329, 254
3, 38, 125, 126, 39, 220, 315, 316, 221, 136, 139, 138, 50, 328, 331, 332,
233, 232, 326, 330, 234
4, 220, 315, 316, 221, 80, 185, 184, 79, 328, 331, 332, 233, 219, 206, 218,
91, 254, 329, 333, 255
5, 39, 126, 127, 40, 221, 316, 317, 222, 138, 141, 140, 51, 332, 335, 336,
235, 234, 330, 334, 236
6, 221, 316, 317, 222, 79, 184, 183, 78, 332, 335, 336, 235, 218, 204, 217,
90, 255, 333, 337, 256
7, 40, 127, 128, 41, 222, 317, 318, 223, 140, 143, 142, 52, 336, 339, 340,
237, 236, 334, 338, 238
8, 222, 317, 318, 223, 78, 183, 182, 77, 336, 339, 340, 237, 217, 202, 216,
89, 256, 337, 341, 257
9, 41, 128, 129, 42, 223, 318, 319, 224, 142, 145, 144, 53, 340, 343, 344,
239, 238, 338, 342, 240
10, 223, 318, 319, 224, 77, 182, 181, 76, 340, 343, 344, 239, 216, 200, 215,
88, 257, 341, 345, 258
** ... 76 like lines cut
**
** Node sets +++++++++++++++++++++++++++++++++++++++++++++++
**
*Nset, Nset=Internal_Selection-1_Fixed-1
3, 4, 7, 8, 35, 36, 37, 116, 117, 118, 119, 120, 121, 122, 123, 124, 
310, 311, 312, 313, 314
*Nset, Nset=Internal-1_Internal_Selection-1_Surface_Traction-1
1, 2, 5, 6, 9, 10, 11, 61, 62, 63, 64, 65, 66, 67, 68, 69, 
170, 171, 172, 173, 174
**
** Element sets ++++++++++++++++++++++++++++++++++++++++++++
**
*Elset, Elset=Internal_Selection-1_Solid_Section-1
Solid_part-3
*Elset, Elset=Internal-1_Internal_Selection-1_Surface_Traction-1_S3
1, 2, 25, 26
**
** Surfaces ++++++++++++++++++++++++++++++++++++++++++++++++
**
*Surface, Name=Internal_Selection-1_Surface_Traction-1, Type=Element
Internal-1_Internal_Selection-1_Surface_Traction-1_S3, S3
**
** Physical constants ++++++++++++++++++++++++++++++++++++++
**
**
** Coordinate systems ++++++++++++++++++++++++++++++++++++++
**
**
** Materials +++++++++++++++++++++++++++++++++++++++++++++++
**
*Material, Name=S235
*Density
7800
*Elastic
210000000000, 0.28
*Expansion, Zero=20
1.1E-05
*Conductivity
14
*Specific heat
440
**
** Sections ++++++++++++++++++++++++++++++++++++++++++++++++
**
*Solid section, Elset=Internal_Selection-1_Solid_Section-1, Material=S235
**
** Pre-tension sections ++++++++++++++++++++++++++++++++++++
**
**
** Constraints +++++++++++++++++++++++++++++++++++++++++++++
**
**
** Surface interactions ++++++++++++++++++++++++++++++++++++
**
**
** Contact pairs +++++++++++++++++++++++++++++++++++++++++++
**
**
** Amplitudes ++++++++++++++++++++++++++++++++++++++++++++++
**
**
** Initial conditions ++++++++++++++++++++++++++++++++++++++
**
**
** Steps +++++++++++++++++++++++++++++++++++++++++++++++++++
**
**
** Step-1 ++++++++++++++++++++++++++++++++++++++++++++++++++
**
*Step
*Static
**
** Controls ++++++++++++++++++++++++++++++++++++++++++++++++
**
**
** Output frequency ++++++++++++++++++++++++++++++++++++++++
**
**
** Boundary conditions +++++++++++++++++++++++++++++++++++++
**
*Boundary, op=New
** Name: Fixed-1
*Boundary
Internal_Selection-1_Fixed-1, 1, 6, 0
**
** Loads +++++++++++++++++++++++++++++++++++++++++++++++++++
**
*Cload, op=New
*Dload, op=New
** Name: Surface_Traction-1
*Cload
1, 2, 20.8333333333333
67, 2, 41.6666666666667
170, 2, 83.3333333333333
9, 2, 41.6666666666667
68, 2, -8.33333333E+001
172, 2, -1.66666667E+002
171, 2, -1.66666667E+002
10, 2, -8.33333333E+001
6, 2, 20.8333333333333
64, 2, 41.6666666666667
69, 2, -8.33333333E+001
65, 2, -8.33333333E+001
173, 2, -1.66666667E+002
61, 2, 41.6666666666666
2, 2, 20.8333333333333
174, 2, -1.66666667E+002
63, 2, -8.33333333E+001
11, 2, -8.33333333E+001
5, 2, 20.8333333333333
66, 2, -8.33333333E+001
62, 2, -8.33333333E+001
**
** Defined fields ++++++++++++++++++++++++++++++++++++++++++
**
**
** History outputs +++++++++++++++++++++++++++++++++++++++++
**
**
** Field outputs +++++++++++++++++++++++++++++++++++++++++++
**
*Node file
RF, U
*El file
S, E, NOE
**
** End step ++++++++++++++++++++++++++++++++++++++++++++++++
**
*End step
