**
** Heading +++++++++++++++++++++++++++++++++++++++++++++++++
**
*Heading
Hash: ikRkHUQf, Date: 02/12/2026, Unit system: M_KG_S_C
**
** Nodes +++++++++++++++++++++++++++++++++++++++++++++++++++
**
*Node
1, -5.00000000E-001, -6.00000000E-002, -5.00000000E-002
2, -5.00000000E-001, -6.00000000E-002, 5.00000000E-002
3, 5.00000000E-001, -6.00000000E-002, 5.00000000E-002
4, 5.00000000E-001, -6.00000000E-002, -5.00000000E-002
5, 5.00000000E-001, 6.00000000E-002, 5.00000000E-002
6, 5.00000000E-001, 6.00000000E-002, -5.00000000E-002
7, -5.00000000E-001, 6.00000000E-002, 5.00000000E-002
8, -5.00000000E-001, 6.00000000E-002, -5.00000000E-002
9, -5.00000000E-001, -6.00000000E-002, 3.46944695E-017
10, -5.00000000E-001, -6.00000000E-002, -2.50000000E-002
11, -5.00000000E-001, -6.00000000E-002, 2.50000000E-002
12, -4.16666667E-001, -6.00000000E-002, 5.00000000E-002
13, -3.33333333E-001, -6.00000000E-002, 5.00000000E-002
14, -2.50000000E-001, -6.00000000E-002, 5.00000000E-002
15, -1.66666667E-001, -6.00000000E-002, 5.00000000E-002
16, -8.33333333E-002, -6.00000000E-002, 5.00000000E-002
17, 0.00000000E+000, -6.00000000E-002, 5.00000000E-002
18, 8.33333333E-002, -6.00000000E-002, 5.00000000E-002
19, 1.66666667E-001, -6.00000000E-002, 5.00000000E-002
20, 2.50000000E-001, -6.00000000E-002, 5.00000000E-002
** ... 361 like lines cut
**
** Elements ++++++++++++++++++++++++++++++++++++++++++++++++
**
*Element, Type=C3D20, Elset=Solid_part-1
1, 1, 9, 125, 38, 122, 220, 315, 225, 10, 137, 136, 49, 221, 327, 328,
236, 124, 223, 326, 237
2, 122, 220, 315, 225, 8, 93, 185, 106, 221, 327, 328, 236, 94, 208, 206,
118, 123, 222, 329, 238
3, 38, 125, 126, 39, 225, 315, 316, 226, 136, 139, 138, 50, 328, 331, 332,
239, 237, 326, 330, 240
4, 225, 315, 316, 226, 106, 185, 184, 105, 328, 331, 332, 239, 206, 207, 204,
117, 238, 329, 333, 241
5, 39, 126, 127, 40, 226, 316, 317, 227, 138, 141, 140, 51, 332, 335, 336,
242, 240, 330, 334, 243
6, 226, 316, 317, 227, 105, 184, 183, 104, 332, 335, 336, 242, 204, 205, 202,
116, 241, 333, 337, 244
7, 40, 127, 128, 41, 227, 317, 318, 228, 140, 143, 142, 52, 336, 339, 340,
245, 243, 334, 338, 246
8, 227, 317, 318, 228, 104, 183, 182, 103, 336, 339, 340, 245, 202, 203, 200,
115, 244, 337, 341, 247
9, 41, 128, 129, 42, 228, 318, 319, 229, 142, 145, 144, 53, 340, 343, 344,
248, 246, 338, 342, 249
10, 228, 318, 319, 229, 103, 182, 181, 102, 340, 343, 344, 248, 200, 201, 198,
114, 247, 341, 345, 250
** ... 76 like lines cut
**
** Node sets +++++++++++++++++++++++++++++++++++++++++++++++
**
*Nset, Nset=Internal_Selection-1_Fixed-1
1, 2, 7, 8, 9, 10, 11, 93, 94, 95, 119, 120, 121, 122, 123, 124, 
220, 221, 222, 223, 224
*Nset, Nset=Internal-1_Internal_Selection-1_Surface_Traction-1
3, 4, 5, 6, 35, 36, 37, 61, 62, 63, 64, 65, 66, 67, 68, 69, 
170, 171, 172, 173, 174
**
** Element sets ++++++++++++++++++++++++++++++++++++++++++++
**
*Elset, Elset=Internal_Selection-1_Solid_Section-1
Solid_part-1
*Elset, Elset=Internal-1_Internal_Selection-1_Surface_Traction-1_S5
23, 24, 47, 48
**
** Surfaces ++++++++++++++++++++++++++++++++++++++++++++++++
**
*Surface, Name=Internal_Selection-1_Surface_Traction-1, Type=Element
Internal-1_Internal_Selection-1_Surface_Traction-1_S5, S5
**
** Physical constants ++++++++++++++++++++++++++++++++++++++
**
**
** Coordinate systems ++++++++++++++++++++++++++++++++++++++
**
**
** Materials +++++++++++++++++++++++++++++++++++++++++++++++
**
*Material, Name=S235
*Density
7800
*Elastic
210000000000, 0.28
*Expansion, Zero=20
1.1E-05
*Conductivity
14
*Specific heat
440
**
** Sections ++++++++++++++++++++++++++++++++++++++++++++++++
**
*Solid section, Elset=Internal_Selection-1_Solid_Section-1, Material=S235
**
** Pre-tension sections ++++++++++++++++++++++++++++++++++++
**
**
** Constraints +++++++++++++++++++++++++++++++++++++++++++++
**
**
** Surface interactions ++++++++++++++++++++++++++++++++++++
**
**
** Contact pairs +++++++++++++++++++++++++++++++++++++++++++
**
**
** Amplitudes ++++++++++++++++++++++++++++++++++++++++++++++
**
**
** Initial conditions ++++++++++++++++++++++++++++++++++++++
**
**
** Steps +++++++++++++++++++++++++++++++++++++++++++++++++++
**
**
** Step-1 ++++++++++++++++++++++++++++++++++++++++++++++++++
**
*Step
*Static
**
** Controls ++++++++++++++++++++++++++++++++++++++++++++++++
**
**
** Output frequency ++++++++++++++++++++++++++++++++++++++++
**
**
** Boundary conditions +++++++++++++++++++++++++++++++++++++
**
*Boundary, op=New
** Name: Fixed-1
*Boundary
Internal_Selection-1_Fixed-1, 1, 6, 0
**
** Loads +++++++++++++++++++++++++++++++++++++++++++++++++++
**
*Cload, op=New
*Dload, op=New
** Name: Surface_Traction-1
*Cload
35, 2, 41.6666666666668
170, 2, 83.3333333333333
67, 2, 41.6666666666667
4, 2, 20.8333333333334
172, 2, -1.66666667E+002
171, 2, -1.66666667E+002
68, 2, -8.33333333E+001
36, 2, -8.33333333E+001
64, 2, 41.6666666666665
6, 2, 20.8333333333333
173, 2, -1.66666667E+002
65, 2, -8.33333333E+001
69, 2, -8.33333333E+001
3, 2, 20.8333333333334
61, 2, 41.6666666666666
62, 2, -8.33333333E+001
174, 2, -1.66666667E+002
37, 2, -8.33333333E+001
5, 2, 20.8333333333333
63, 2, -83.333333333333
66, 2, -83.333333333333
**
** Defined fields ++++++++++++++++++++++++++++++++++++++++++
**
**
** History outputs +++++++++++++++++++++++++++++++++++++++++
**
**
** Field outputs +++++++++++++++++++++++++++++++++++++++++++
**
*Node file
RF, U
*El file
S, E, NOE
**
** End step ++++++++++++++++++++++++++++++++++++++++++++++++
**
*End step
