**
** Heading +++++++++++++++++++++++++++++++++++++++++++++++++
**
*Heading
Hash: 3KUxk92N, Date: 02/12/2026, Unit system: M_KG_S_C
**
** Nodes +++++++++++++++++++++++++++++++++++++++++++++++++++
**
*Node
1, -5.00000000E-001, -7.00000000E-002, -5.00000000E-002
2, -5.00000000E-001, -7.00000000E-002, 5.00000000E-002
3, 5.00000000E-001, -7.00000000E-002, 5.00000000E-002
4, 5.00000000E-001, -7.00000000E-002, -5.00000000E-002
5, 5.00000000E-001, 7.00000000E-002, 5.00000000E-002
6, 5.00000000E-001, 7.00000000E-002, -5.00000000E-002
7, -5.00000000E-001, 7.00000000E-002, -5.00000000E-002
8, -5.00000000E-001, 7.00000000E-002, 5.00000000E-002
9, -5.00000000E-001, -7.00000000E-002, 3.46944695E-017
10, -5.00000000E-001, -7.00000000E-002, -2.50000000E-002
11, -5.00000000E-001, -7.00000000E-002, 2.50000000E-002
12, -4.16666667E-001, -7.00000000E-002, 5.00000000E-002
13, -3.33333333E-001, -7.00000000E-002, 5.00000000E-002
14, -2.50000000E-001, -7.00000000E-002, 5.00000000E-002
15, -1.66666667E-001, -7.00000000E-002, 5.00000000E-002
16, -8.33333333E-002, -7.00000000E-002, 5.00000000E-002
17, 0.00000000E+000, -7.00000000E-002, 5.00000000E-002
18, 8.33333333E-002, -7.00000000E-002, 5.00000000E-002
19, 1.66666667E-001, -7.00000000E-002, 5.00000000E-002
20, 2.50000000E-001, -7.00000000E-002, 5.00000000E-002
** ... 602 like lines cut
**
** Elements ++++++++++++++++++++++++++++++++++++++++++++++++
**
*Element, Type=C3D20, Elset=Solid_part-2
1, 1, 9, 125, 38, 122, 220, 315, 225, 10, 137, 136, 49, 221, 327, 328,
236, 124, 223, 326, 237
2, 122, 220, 315, 225, 7, 70, 175, 96, 221, 327, 328, 236, 71, 186, 187,
107, 123, 222, 329, 238
3, 38, 125, 126, 39, 225, 315, 316, 226, 136, 139, 138, 50, 328, 331, 332,
239, 237, 326, 330, 240
4, 225, 315, 316, 226, 96, 175, 176, 97, 328, 331, 332, 239, 187, 188, 189,
108, 238, 329, 333, 241
5, 39, 126, 127, 40, 226, 316, 317, 227, 138, 141, 140, 51, 332, 335, 336,
242, 240, 330, 334, 243
6, 226, 316, 317, 227, 97, 176, 177, 98, 332, 335, 336, 242, 189, 190, 191,
109, 241, 333, 337, 244
7, 40, 127, 128, 41, 227, 317, 318, 228, 140, 143, 142, 52, 336, 339, 340,
245, 243, 334, 338, 246
8, 227, 317, 318, 228, 98, 177, 178, 99, 336, 339, 340, 245, 191, 192, 193,
110, 244, 337, 341, 247
9, 41, 128, 129, 42, 228, 318, 319, 229, 142, 145, 144, 53, 340, 343, 344,
248, 246, 338, 342, 249
10, 228, 318, 319, 229, 99, 178, 179, 100, 340, 343, 344, 248, 193, 194, 195,
111, 247, 341, 345, 250
** ... 76 like lines cut
*Element, Type=C3D20, Elset=Solid_part-1
49, 382, 390, 498, 419, 389, 470, 554, 483, 391, 510, 509, 430, 471, 577, 575,
495, 497, 589, 612, 590
50, 419, 498, 499, 420, 483, 554, 553, 482, 509, 512, 511, 431, 575, 576, 573,
494, 590, 612, 613, 591
51, 420, 499, 500, 421, 482, 553, 552, 481, 511, 514, 513, 432, 573, 574, 571,
493, 591, 613, 614, 592
52, 421, 500, 501, 422, 481, 552, 551, 480, 513, 516, 515, 433, 571, 572, 569,
492, 592, 614, 615, 593
53, 422, 501, 502, 423, 480, 551, 550, 479, 515, 518, 517, 434, 569, 570, 567,
491, 593, 615, 616, 594
54, 423, 502, 503, 424, 479, 550, 549, 478, 517, 520, 519, 435, 567, 568, 565,
490, 594, 616, 617, 595
55, 424, 503, 504, 425, 478, 549, 548, 477, 519, 522, 521, 436, 565, 566, 563,
489, 595, 617, 618, 596
56, 425, 504, 505, 426, 477, 548, 547, 476, 521, 524, 523, 437, 563, 564, 561,
488, 596, 618, 619, 597
57, 426, 505, 506, 427, 476, 547, 546, 475, 523, 526, 525, 438, 561, 562, 559,
487, 597, 619, 620, 598
58, 427, 506, 507, 428, 475, 546, 545, 474, 525, 528, 527, 439, 559, 560, 557,
486, 598, 620, 621, 599
** ... 28 like lines cut
**
** Node sets +++++++++++++++++++++++++++++++++++++++++++++++
**
*Nset, Nset=Internal-1_Internal_Selection-1_Solid_part-1_to_Solid_part-2_Master
382, 383, 384, 385, 390, 391, 392, 393, 394, 395, 396, 397, 398, 399, 400, 401, 
402, 403, 404, 405, 406, 407, 408, 409, 410, 411, 412, 413, 414, 415, 416, 417, 
418, 419, 420, 421, 422, 423, 424, 425, 426, 427, 428, 429, 430, 431, 432, 433, 
434, 435, 436, 437, 438, 439, 440, 441, 498, 499, 500, 501, 502, 503, 504, 505, 
506, 507, 508, 509, 510, 511, 512, 513, 514, 515, 516, 517, 518, 519, 520, 521, 
522, 523, 524, 525, 526, 527, 528, 529, 530, 531, 532, 533, 534, 535, 536, 537, 
538, 539, 540, 541, 542
*Nset, Nset=Internal-1_Internal_Selection-1_Solid_part-1_to_Solid_part-2_Slave
5, 6, 7, 8, 64, 65, 66, 70, 71, 72, 73, 74, 75, 76, 77, 78, 
79, 80, 81, 82, 83, 84, 85, 86, 87, 88, 89, 90, 91, 92, 93, 94, 
95, 96, 97, 98, 99, 100, 101, 102, 103, 104, 105, 106, 107, 108, 109, 110, 
111, 112, 113, 114, 115, 116, 117, 118, 175, 176, 177, 178, 179, 180, 181, 182, 
183, 184, 185, 186, 187, 188, 189, 190, 191, 192, 193, 194, 195, 196, 197, 198, 
199, 200, 201, 202, 203, 204, 205, 206, 207, 208, 209, 210, 211, 212, 213, 214, 
215, 216, 217, 218, 219
*Nset, Nset=Internal_Selection-1_Fixed-1
1, 2, 7, 8, 9, 10, 11, 70, 71, 72, 119, 120, 121, 122, 123, 124, 
220, 221, 222, 223, 224, 382, 383, 388, 389, 390, 391, 392, 470, 471, 472, 496, 
497, 589
*Nset, Nset=Internal-1_Internal_Selection-1_Surface_Traction-1
3, 4, 5, 6, 35, 36, 37, 61, 62, 63, 64, 65, 66, 67, 68, 69, 
170, 171, 172, 173, 174, 384, 385, 386, 387, 416, 417, 418, 442, 443, 444, 445, 
446, 543
**
** Element sets ++++++++++++++++++++++++++++++++++++++++++++
**
*Elset, Elset=Internal-1_Internal_Selection-1_Solid_part-1_to_Solid_part-2_Master_S1
49, 50, 51, 52, 53, 54, 55, 56, 57, 58, 59, 60, 61, 62, 63, 64, 
65, 66, 67, 68, 69, 70, 71, 72
*Elset, Elset=Internal-1_Internal_Selection-1_Solid_part-1_to_Solid_part-2_Slave_S2
2, 4, 6, 8, 10, 12, 14, 16, 18, 20, 22, 24, 26, 28, 30, 32, 
34, 36, 38, 40, 42, 44, 46, 48
*Elset, Elset=Internal_Selection-1_Solid_Section-1
Solid_part-2, 
Solid_part-1
*Elset, Elset=Internal-1_Internal_Selection-1_Surface_Traction-1_S5
23, 24, 47, 48, 60, 72
**
** Surfaces ++++++++++++++++++++++++++++++++++++++++++++++++
**
*Surface, Name=Internal_Selection-1_Solid_part-1_to_Solid_part-2_Master, Type=Element
Internal-1_Internal_Selection-1_Solid_part-1_to_Solid_part-2_Master_S1, S1
*Surface, Name=Internal_Selection-1_Solid_part-1_to_Solid_part-2_Slave, Type=Element
Internal-1_Internal_Selection-1_Solid_part-1_to_Solid_part-2_Slave_S2, S2
*Surface, Name=Internal_Selection-1_Surface_Traction-1, Type=Element
Internal-1_Internal_Selection-1_Surface_Traction-1_S5, S5
**
** Physical constants ++++++++++++++++++++++++++++++++++++++
**
**
** Coordinate systems ++++++++++++++++++++++++++++++++++++++
**
**
** Materials +++++++++++++++++++++++++++++++++++++++++++++++
**
*Material, Name=S235
*Density
7800
*Elastic
210000000000, 0.28
*Expansion, Zero=20
1.1E-05
*Conductivity
14
*Specific heat
440
**
** Sections ++++++++++++++++++++++++++++++++++++++++++++++++
**
*Solid section, Elset=Internal_Selection-1_Solid_Section-1, Material=S235
**
** Pre-tension sections ++++++++++++++++++++++++++++++++++++
**
**
** Constraints +++++++++++++++++++++++++++++++++++++++++++++
**
*Tie, Name=Solid_part-1_to_Solid_part-2, Position tolerance=0.001, Adjust=No
Internal_Selection-1_Solid_part-1_to_Solid_part-2_Slave, Internal_Selection-1_Solid_part-1_to_Solid_part-2_Master
**
** Surface interactions ++++++++++++++++++++++++++++++++++++
**
**
** Contact pairs +++++++++++++++++++++++++++++++++++++++++++
**
**
** Amplitudes ++++++++++++++++++++++++++++++++++++++++++++++
**
**
** Initial conditions ++++++++++++++++++++++++++++++++++++++
**
**
** Steps +++++++++++++++++++++++++++++++++++++++++++++++++++
**
**
** Step-1 ++++++++++++++++++++++++++++++++++++++++++++++++++
**
*Step
*Static
**
** Controls ++++++++++++++++++++++++++++++++++++++++++++++++
**
**
** Output frequency ++++++++++++++++++++++++++++++++++++++++
**
**
** Boundary conditions +++++++++++++++++++++++++++++++++++++
**
*Boundary, op=New
** Name: Fixed-1
*Boundary
Internal_Selection-1_Fixed-1, 1, 6, 0
**
** Loads +++++++++++++++++++++++++++++++++++++++++++++++++++
**
*Cload, op=New
*Dload, op=New
** Name: Surface_Traction-1
*Cload
35, 2, 32.4074074074073
170, 2, 64.8148148148148
67, 2, 32.4074074074074
4, 2, 16.2037037037037
172, 2, -1.29629630E+002
171, 2, -129.62962962963
68, 2, -6.48148148E+001
36, 2, -6.48148148E+001
64, 2, 32.4074074074075
6, 2, 16.2037037037038
173, 2, -129.62962962963
65, 2, -64.814814814815
69, 2, -64.814814814815
3, 2, 16.2037037037036
61, 2, 32.4074074074074
62, 2, -6.48148148E+001
174, 2, -129.62962962963
37, 2, -6.48148148E+001
5, 2, 16.2037037037037
63, 2, -64.814814814815
** ... 14 like lines cut
**
** Defined fields ++++++++++++++++++++++++++++++++++++++++++
**
**
** History outputs +++++++++++++++++++++++++++++++++++++++++
**
**
** Field outputs +++++++++++++++++++++++++++++++++++++++++++
**
*Node file
RF, U
*El file
S, E, NOE
**
** End step ++++++++++++++++++++++++++++++++++++++++++++++++
**
*End step
