**
** Heading +++++++++++++++++++++++++++++++++++++++++++++++++
**
*Heading
Hash: FIhiFF3Q, Date: 02/11/2026, Unit system: M_KG_S_C
**
** Nodes +++++++++++++++++++++++++++++++++++++++++++++++++++
**
*Node
1, 5.00000000E-001, 7.00000000E-002, -5.00000000E-002
2, 5.00000000E-001, 7.00000000E-002, 5.00000000E-002
3, -5.00000000E-001, 7.00000000E-002, 5.00000000E-002
4, -5.00000000E-001, 7.00000000E-002, -5.00000000E-002
5, 5.00000000E-001, 9.00000000E-002, 5.00000000E-002
6, 5.00000000E-001, 9.00000000E-002, -5.00000000E-002
7, -5.00000000E-001, 9.00000000E-002, 5.00000000E-002
8, -5.00000000E-001, 9.00000000E-002, -5.00000000E-002
9, 5.00000000E-001, 7.00000000E-002, 3.46944695E-017
10, 5.00000000E-001, 7.00000000E-002, -2.50000000E-002
11, 5.00000000E-001, 7.00000000E-002, 2.50000000E-002
12, 4.16666667E-001, 7.00000000E-002, 5.00000000E-002
13, 3.33333333E-001, 7.00000000E-002, 5.00000000E-002
14, 2.50000000E-001, 7.00000000E-002, 5.00000000E-002
15, 1.66666667E-001, 7.00000000E-002, 5.00000000E-002
16, 8.33333333E-002, 7.00000000E-002, 5.00000000E-002
17, 0.00000000E+000, 7.00000000E-002, 5.00000000E-002
18, -8.33333333E-002, 7.00000000E-002, 5.00000000E-002
19, -1.66666667E-001, 7.00000000E-002, 5.00000000E-002
20, -2.50000000E-001, 7.00000000E-002, 5.00000000E-002
** ... 602 like lines cut
**
** Elements ++++++++++++++++++++++++++++++++++++++++++++++++
**
*Element, Type=C3D20, Elset=Solid_part-2
1, 117, 9, 1, 38, 163, 62, 6, 92, 128, 10, 49, 129, 175, 63, 103,
174, 231, 162, 65, 209
2, 118, 117, 38, 39, 164, 163, 92, 93, 130, 129, 50, 131, 177, 174, 104,
176, 232, 231, 209, 210
3, 119, 118, 39, 40, 165, 164, 93, 94, 132, 131, 51, 133, 179, 176, 105,
178, 233, 232, 210, 211
4, 120, 119, 40, 41, 166, 165, 94, 95, 134, 133, 52, 135, 181, 178, 106,
180, 234, 233, 211, 212
5, 121, 120, 41, 42, 167, 166, 95, 96, 136, 135, 53, 137, 183, 180, 107,
182, 235, 234, 212, 213
6, 122, 121, 42, 43, 168, 167, 96, 97, 138, 137, 54, 139, 185, 182, 108,
184, 236, 235, 213, 214
7, 123, 122, 43, 44, 169, 168, 97, 98, 140, 139, 55, 141, 187, 184, 109,
186, 237, 236, 214, 215
8, 124, 123, 44, 45, 170, 169, 98, 99, 142, 141, 56, 143, 189, 186, 110,
188, 238, 237, 215, 216
9, 125, 124, 45, 46, 171, 170, 99, 100, 144, 143, 57, 145, 191, 188, 111,
190, 239, 238, 216, 217
10, 126, 125, 46, 47, 172, 171, 100, 101, 146, 145, 58, 147, 193, 190, 112,
192, 240, 239, 217, 218
** ... 28 like lines cut
*Element, Type=C3D20, Elset=Solid_part-1
25, 242, 250, 366, 279, 363, 461, 556, 466, 251, 378, 377, 290, 462, 568, 569,
477, 365, 464, 567, 478
26, 363, 461, 556, 466, 249, 334, 426, 347, 462, 568, 569, 477, 335, 449, 447,
359, 364, 463, 570, 479
27, 279, 366, 367, 280, 466, 556, 557, 467, 377, 380, 379, 291, 569, 572, 573,
480, 478, 567, 571, 481
28, 466, 556, 557, 467, 347, 426, 425, 346, 569, 572, 573, 480, 447, 448, 445,
358, 479, 570, 574, 482
29, 280, 367, 368, 281, 467, 557, 558, 468, 379, 382, 381, 292, 573, 576, 577,
483, 481, 571, 575, 484
30, 467, 557, 558, 468, 346, 425, 424, 345, 573, 576, 577, 483, 445, 446, 443,
357, 482, 574, 578, 485
31, 281, 368, 369, 282, 468, 558, 559, 469, 381, 384, 383, 293, 577, 580, 581,
486, 484, 575, 579, 487
32, 468, 558, 559, 469, 345, 424, 423, 344, 577, 580, 581, 486, 443, 444, 441,
356, 485, 578, 582, 488
33, 282, 369, 370, 283, 469, 559, 560, 470, 383, 386, 385, 294, 581, 584, 585,
489, 487, 579, 583, 490
34, 469, 559, 560, 470, 344, 423, 422, 343, 581, 584, 585, 489, 441, 442, 439,
355, 488, 582, 586, 491
** ... 76 like lines cut
**
** Node sets +++++++++++++++++++++++++++++++++++++++++++++++
**
*Nset, Nset=Internal-1_Internal_Selection-1_Solid_part-2_to_Solid_part-1_Master
1, 2, 3, 4, 9, 10, 11, 12, 13, 14, 15, 16, 17, 18, 19, 20, 
21, 22, 23, 24, 25, 26, 27, 28, 29, 30, 31, 32, 33, 34, 35, 36, 
37, 38, 39, 40, 41, 42, 43, 44, 45, 46, 47, 48, 49, 50, 51, 52, 
53, 54, 55, 56, 57, 58, 59, 60, 117, 118, 119, 120, 121, 122, 123, 124, 
125, 126, 127, 128, 129, 130, 131, 132, 133, 134, 135, 136, 137, 138, 139, 140, 
141, 142, 143, 144, 145, 146, 147, 148, 149, 150, 151, 152, 153, 154, 155, 156, 
157, 158, 159, 160, 161
*Nset, Nset=Internal-1_Internal_Selection-1_Solid_part-2_to_Solid_part-1_Slave
246, 247, 248, 249, 305, 306, 307, 311, 312, 313, 314, 315, 316, 317, 318, 319, 
320, 321, 322, 323, 324, 325, 326, 327, 328, 329, 330, 331, 332, 333, 334, 335, 
336, 337, 338, 339, 340, 341, 342, 343, 344, 345, 346, 347, 348, 349, 350, 351, 
352, 353, 354, 355, 356, 357, 358, 359, 416, 417, 418, 419, 420, 421, 422, 423, 
424, 425, 426, 427, 428, 429, 430, 431, 432, 433, 434, 435, 436, 437, 438, 439, 
440, 441, 442, 443, 444, 445, 446, 447, 448, 449, 450, 451, 452, 453, 454, 455, 
456, 457, 458, 459, 460
*Nset, Nset=Internal_Selection-1_Fixed-1
3, 4, 7, 8, 35, 36, 37, 89, 90, 91, 115, 116, 208, 242, 243, 248, 
249, 250, 251, 252, 334, 335, 336, 360, 361, 362, 363, 364, 365, 461, 462, 463, 
464, 465
*Nset, Nset=Internal-1_Internal_Selection-1_Surface_Traction-1
1, 2, 5, 6, 9, 10, 11, 61, 62, 63, 64, 65, 162, 244, 245, 246, 
247, 276, 277, 278, 302, 303, 304, 305, 306, 307, 308, 309, 310, 411, 412, 413, 
414, 415
**
** Element sets ++++++++++++++++++++++++++++++++++++++++++++
**
*Elset, Elset=Internal-1_Internal_Selection-1_Solid_part-2_to_Solid_part-1_Master_S1
1, 2, 3, 4, 5, 6, 7, 8, 9, 10, 11, 12, 13, 14, 15, 16, 
17, 18, 19, 20, 21, 22, 23, 24
*Elset, Elset=Internal-1_Internal_Selection-1_Solid_part-2_to_Solid_part-1_Slave_S2
26, 28, 30, 32, 34, 36, 38, 40, 42, 44, 46, 48, 50, 52, 54, 56, 
58, 60, 62, 64, 66, 68, 70, 72
*Elset, Elset=Internal_Selection-1_Solid_Section-1
Solid_part-2, 
Solid_part-1
*Elset, Elset=Internal-1_Internal_Selection-1_Surface_Traction-1_S4
1, 13
*Elset, Elset=Internal-1_Internal_Selection-1_Surface_Traction-1_S5
47, 48, 71, 72
**
** Surfaces ++++++++++++++++++++++++++++++++++++++++++++++++
**
*Surface, Name=Internal_Selection-1_Solid_part-2_to_Solid_part-1_Master, Type=Element
Internal-1_Internal_Selection-1_Solid_part-2_to_Solid_part-1_Master_S1, S1
*Surface, Name=Internal_Selection-1_Solid_part-2_to_Solid_part-1_Slave, Type=Element
Internal-1_Internal_Selection-1_Solid_part-2_to_Solid_part-1_Slave_S2, S2
*Surface, Name=Internal_Selection-1_Surface_Traction-1, Type=Element
Internal-1_Internal_Selection-1_Surface_Traction-1_S4, S4
Internal-1_Internal_Selection-1_Surface_Traction-1_S5, S5
**
** Physical constants ++++++++++++++++++++++++++++++++++++++
**
**
** Coordinate systems ++++++++++++++++++++++++++++++++++++++
**
**
** Materials +++++++++++++++++++++++++++++++++++++++++++++++
**
*Material, Name=S235
*Density
7800
*Elastic
210000000000, 0.28
*Expansion, Zero=20
1.1E-05
*Conductivity
14
*Specific heat
440
**
** Sections ++++++++++++++++++++++++++++++++++++++++++++++++
**
*Solid section, Elset=Internal_Selection-1_Solid_Section-1, Material=S235
**
** Pre-tension sections ++++++++++++++++++++++++++++++++++++
**
**
** Constraints +++++++++++++++++++++++++++++++++++++++++++++
**
*Tie, Name=Solid_part-2_to_Solid_part-1, Position tolerance=0.001, Adjust=No
Internal_Selection-1_Solid_part-2_to_Solid_part-1_Slave, Internal_Selection-1_Solid_part-2_to_Solid_part-1_Master
**
** Surface interactions ++++++++++++++++++++++++++++++++++++
**
**
** Contact pairs +++++++++++++++++++++++++++++++++++++++++++
**
**
** Amplitudes ++++++++++++++++++++++++++++++++++++++++++++++
**
**
** Initial conditions ++++++++++++++++++++++++++++++++++++++
**
**
** Steps +++++++++++++++++++++++++++++++++++++++++++++++++++
**
**
** Step-1 ++++++++++++++++++++++++++++++++++++++++++++++++++
**
*Step
*Static
**
** Controls ++++++++++++++++++++++++++++++++++++++++++++++++
**
**
** Output frequency ++++++++++++++++++++++++++++++++++++++++
**
**
** Boundary conditions +++++++++++++++++++++++++++++++++++++
**
*Boundary, op=New
** Name: Fixed-1
*Boundary
Internal_Selection-1_Fixed-1, 1, 6, 0
**
** Loads +++++++++++++++++++++++++++++++++++++++++++++++++++
**
*Cload, op=New
*Dload, op=New
** Name: Surface_Traction-1
*Cload
9, 2, 10.4166666666667
62, 2, 10.4166666666667
6, 2, 5.20833333333333
1, 2, 5.20833333333333
162, 2, -4.16666667E+001
63, 2, -2.08333333E+001
65, 2, -2.08333333E+001
10, 2, -2.08333333E+001
2, 2, 5.20833333333333
5, 2, 5.20833333333333
61, 2, -2.08333333E+001
64, 2, -2.08333333E+001
11, 2, -2.08333333E+001
276, 2, 36.4583333333332
411, 2, 72.9166666666667
308, 2, 36.4583333333334
245, 2, 18.2291666666666
413, 2, -1.45833333E+002
412, 2, -1.45833333E+002
309, 2, -7.29166667E+001
** ... 14 like lines cut
**
** Defined fields ++++++++++++++++++++++++++++++++++++++++++
**
**
** History outputs +++++++++++++++++++++++++++++++++++++++++
**
**
** Field outputs +++++++++++++++++++++++++++++++++++++++++++
**
*Node file
RF, U
*El file
S, E, NOE
**
** End step ++++++++++++++++++++++++++++++++++++++++++++++++
**
*End step
