**
** Heading +++++++++++++++++++++++++++++++++++++++++++++++++
**
*Heading
Hash: bQxHmeFI, Date: 04/20/2026, Unit system: M_KG_S_C
**
** Nodes +++++++++++++++++++++++++++++++++++++++++++++++++++
**
*Node
1, -1.00000000E+000, 1.00000000E-001, -5.00000000E-002
2, -1.00000000E+000, -1.00000000E-001, -5.00000000E-002
3, 1.00000000E+000, -1.00000000E-001, -5.00000000E-002
4, 1.00000000E+000, 1.00000000E-001, -5.00000000E-002
5, 1.00000000E+000, -1.00000000E-001, 5.00000000E-002
6, 1.00000000E+000, 1.00000000E-001, 5.00000000E-002
7, -1.00000000E+000, -1.00000000E-001, 5.00000000E-002
8, -1.00000000E+000, 1.00000000E-001, 5.00000000E-002
9, -1.00000000E+000, -6.93889390E-017, -5.00000000E-002
10, -1.00000000E+000, 5.00000000E-002, -5.00000000E-002
11, -1.00000000E+000, -5.00000000E-002, -5.00000000E-002
12, -9.41176471E-001, -1.00000000E-001, -5.00000000E-002
13, -8.82352941E-001, -1.00000000E-001, -5.00000000E-002
14, -8.23529412E-001, -1.00000000E-001, -5.00000000E-002
15, -7.64705882E-001, -1.00000000E-001, -5.00000000E-002
16, -7.05882353E-001, -1.00000000E-001, -5.00000000E-002
17, -6.47058824E-001, -1.00000000E-001, -5.00000000E-002
18, -5.88235294E-001, -1.00000000E-001, -5.00000000E-002
19, -5.29411765E-001, -1.00000000E-001, -5.00000000E-002
20, -4.70588235E-001, -1.00000000E-001, -5.00000000E-002
** ... 1021 like lines cut
**
** Elements ++++++++++++++++++++++++++++++++++++++++++++++++
**
*Element, Type=C3D20, Elset=Solid_part-1
1, 1, 9, 301, 82, 298, 572, 843, 577, 10, 335, 334, 115, 573, 877, 878,
611, 300, 575, 876, 677
2, 298, 572, 843, 577, 8, 225, 471, 260, 573, 877, 878, 611, 226, 538, 536,
294, 299, 574, 879, 610
3, 82, 301, 302, 83, 577, 843, 844, 578, 334, 337, 336, 116, 878, 881, 882,
613, 677, 876, 880, 678
4, 577, 843, 844, 578, 260, 471, 470, 259, 878, 881, 882, 613, 536, 537, 534,
293, 610, 879, 883, 612
5, 83, 302, 303, 84, 578, 844, 845, 579, 336, 339, 338, 117, 882, 885, 886,
615, 678, 880, 884, 679
6, 578, 844, 845, 579, 259, 470, 469, 258, 882, 885, 886, 615, 534, 535, 532,
292, 612, 883, 887, 614
7, 84, 303, 304, 85, 579, 845, 846, 580, 338, 341, 340, 118, 886, 889, 890,
617, 679, 884, 888, 680
8, 579, 845, 846, 580, 258, 469, 468, 257, 886, 889, 890, 617, 532, 533, 530,
291, 614, 887, 891, 616
9, 85, 304, 305, 86, 580, 846, 847, 581, 340, 343, 342, 119, 890, 893, 894,
619, 680, 888, 892, 681
10, 580, 846, 847, 581, 257, 468, 467, 256, 890, 893, 894, 619, 530, 531, 528,
290, 616, 891, 895, 618
** ... 252 like lines cut
**
** Node sets +++++++++++++++++++++++++++++++++++++++++++++++
**
*Nset, Nset=Internal_Selection-1_Fixed-1
3, 4, 5, 6, 79, 80, 81, 149, 150, 151, 152, 153, 154, 155, 156, 157, 
434, 435, 436, 437, 438
*Nset, Nset=Internal-1_Internal_Selection-1_Surface_Traction-1
1, 2, 7, 8, 9, 10, 11, 225, 226, 227, 295, 296, 297, 298, 299, 300, 
572, 573, 574, 575, 576
**
** Element sets ++++++++++++++++++++++++++++++++++++++++++++
**
*Elset, Elset=Internal_Selection-1_Solid_Section-1
Solid_part-1
*Elset, Elset=Internal-1_Internal_Selection-1_Surface_Traction-1_S3
1, 2, 69, 70
**
** Surfaces ++++++++++++++++++++++++++++++++++++++++++++++++
**
*Surface, Name=Internal_Selection-1_Surface_Traction-1, Type=Element
Internal-1_Internal_Selection-1_Surface_Traction-1_S3, S3
**
** Physical constants ++++++++++++++++++++++++++++++++++++++
**
**
** Coordinate systems ++++++++++++++++++++++++++++++++++++++
**
**
** Materials +++++++++++++++++++++++++++++++++++++++++++++++
**
*Material, Name=S235
*Density
7800
*Elastic
210000000000, 0.28
*Expansion, Zero=20
1.1E-05
*Conductivity
14
*Specific heat
440
**
** Sections ++++++++++++++++++++++++++++++++++++++++++++++++
**
*Solid section, Elset=Internal_Selection-1_Solid_Section-1, Material=S235
**
** Pre-tension sections ++++++++++++++++++++++++++++++++++++
**
**
** Constraints +++++++++++++++++++++++++++++++++++++++++++++
**
**
** Surface interactions ++++++++++++++++++++++++++++++++++++
**
**
** Contact pairs +++++++++++++++++++++++++++++++++++++++++++
**
**
** Amplitudes ++++++++++++++++++++++++++++++++++++++++++++++
**
**
** Initial conditions ++++++++++++++++++++++++++++++++++++++
**
**
** Steps +++++++++++++++++++++++++++++++++++++++++++++++++++
**
**
** Step-1 ++++++++++++++++++++++++++++++++++++++++++++++++++
**
*Step
*Static
**
** Controls ++++++++++++++++++++++++++++++++++++++++++++++++
**
**
** Output frequency ++++++++++++++++++++++++++++++++++++++++
**
**
** Boundary conditions +++++++++++++++++++++++++++++++++++++
**
*Boundary, op=New
** Name: Fixed-1
*Boundary
Internal_Selection-1_Fixed-1, 1, 6, 0
**
** Loads +++++++++++++++++++++++++++++++++++++++++++++++++++
**
*Cload, op=New
*Dload, op=New
** Name: Surface_Traction-1
*Cload
1, 2, 20.8333333333333
298, 2, 41.6666666666667
572, 2, 83.3333333333333
9, 2, 41.6666666666666
300, 2, -8.33333333E+001
573, 2, -1.66666667E+002
575, 2, -1.66666667E+002
10, 2, -8.33333333E+001
8, 2, 20.8333333333334
225, 2, 41.6666666666667
299, 2, -8.33333333E+001
226, 2, -8.33333333E+001
574, 2, -1.66666667E+002
295, 2, 41.6666666666666
2, 2, 20.8333333333333
576, 2, -1.66666667E+002
297, 2, -8.33333333E+001
11, 2, -8.33333333E+001
7, 2, 20.8333333333333
227, 2, -8.33333333E+001
296, 2, -8.33333333E+001
**
** Defined fields ++++++++++++++++++++++++++++++++++++++++++
**
**
** History outputs +++++++++++++++++++++++++++++++++++++++++
**
**
** Field outputs +++++++++++++++++++++++++++++++++++++++++++
**
*Node file
RF, U
*El file
S, E, NOE
**
** End step ++++++++++++++++++++++++++++++++++++++++++++++++
**
*End step
